<?xml version="1.0" encoding="UTF-8"?>

<!-- generated on 2026-02-05T13:27:41.500657-05:00 by Eclipse SUMO netconvert 1.25.0
<netconvertConfiguration xmlns:xsi="http://www.w3.org/2001/XMLSchema-instance" xsi:noNamespaceSchemaLocation="http://sumo.dlr.de/xsd/netconvertConfiguration.xsd">

    <input>
        <node-files value="network/oxford_hyde_park.nod.xml"/>
        <edge-files value="network/oxford_hyde_park.edg.xml"/>
        <connection-files value="network/oxford_hyde_park.con.xml"/>
    </input>

    <output>
        <output-file value="network/oxford_hyde_park.net.xml"/>
    </output>

    <junctions>
        <junctions.join value="true"/>
    </junctions>

</netconvertConfiguration>
-->

<net version="1.20" junctionCornerDetail="5" limitTurnSpeed="5.50" xmlns:xsi="http://www.w3.org/2001/XMLSchema-instance" xsi:noNamespaceSchemaLocation="http://sumo.dlr.de/xsd/net_file.xsd">

    <location netOffset="0.00,0.00" convBoundary="0.00,0.00,1000.00,1000.00" origBoundary="0.00,0.00,1000.00,1000.00" projParameter="!"/>

    <edge id=":C_0" function="internal">
        <lane id=":C_0_0" index="0" speed="7.24" length="11.48" shape="488.90,516.60 488.56,512.84 487.52,510.15 485.81,508.54 483.40,508.00"/>
    </edge>
    <edge id=":C_1" function="internal">
        <lane id=":C_1_0" index="0" speed="16.67" length="33.20" shape="492.05,516.60 492.00,483.40"/>
        <lane id=":C_1_1" index="1" speed="16.67" length="33.20" shape="495.35,516.60 495.20,483.40"/>
    </edge>
    <edge id=":C_3" function="internal">
        <lane id=":C_3_0" index="0" speed="11.27" length="13.03" shape="498.50,516.60 499.63,508.64 502.19,504.35"/>
    </edge>
    <edge id=":C_16" function="internal">
        <lane id=":C_16_0" index="0" speed="11.27" length="16.24" shape="502.19,504.35 503.02,502.95 508.68,499.54 516.60,498.40"/>
    </edge>
    <edge id=":C_4" function="internal">
        <lane id=":C_4_0" index="0" speed="12.92" length="22.51" shape="516.60,511.10 509.02,508.02 500.98,500.58 499.04,497.82"/>
    </edge>
    <edge id=":C_5" function="internal">
        <lane id=":C_5_0" index="0" speed="16.67" length="33.20" shape="516.60,507.95 483.40,508.00"/>
        <lane id=":C_5_1" index="1" speed="16.67" length="33.20" shape="516.60,504.65 483.40,504.80"/>
    </edge>
    <edge id=":C_7" function="internal">
        <lane id=":C_7_0" index="0" speed="10.30" length="4.78" shape="516.60,501.50 511.87,502.18"/>
    </edge>
    <edge id=":C_17" function="internal">
        <lane id=":C_17_0" index="0" speed="12.92" length="16.23" shape="499.04,497.82 494.60,491.48 492.00,483.40"/>
    </edge>
    <edge id=":C_18" function="internal">
        <lane id=":C_18_0" index="0" speed="10.30" length="19.50" shape="511.87,502.18 510.04,502.44 505.35,505.27 502.54,509.99 501.60,516.60"/>
    </edge>
    <edge id=":C_8" function="internal">
        <lane id=":C_8_0" index="0" speed="7.24" length="11.48" shape="511.10,483.40 511.44,487.16 512.48,489.85 514.19,491.46 516.60,492.00"/>
    </edge>
    <edge id=":C_9" function="internal">
        <lane id=":C_9_0" index="0" speed="16.67" length="33.20" shape="507.95,483.40 508.00,516.60"/>
        <lane id=":C_9_1" index="1" speed="16.67" length="33.20" shape="504.65,483.40 504.80,516.60"/>
    </edge>
    <edge id=":C_11" function="internal">
        <lane id=":C_11_0" index="0" speed="11.27" length="13.03" shape="501.50,483.40 500.37,491.36 497.81,495.65"/>
    </edge>
    <edge id=":C_19" function="internal">
        <lane id=":C_19_0" index="0" speed="11.27" length="16.24" shape="497.81,495.65 496.98,497.05 491.32,500.46 483.40,501.60"/>
    </edge>
    <edge id=":C_12" function="internal">
        <lane id=":C_12_0" index="0" speed="12.92" length="22.51" shape="483.40,488.90 490.98,491.98 499.02,499.42 500.96,502.18"/>
    </edge>
    <edge id=":C_13" function="internal">
        <lane id=":C_13_0" index="0" speed="16.67" length="33.20" shape="483.40,492.05 516.60,492.00"/>
        <lane id=":C_13_1" index="1" speed="16.67" length="33.20" shape="483.40,495.35 516.60,495.20"/>
    </edge>
    <edge id=":C_15" function="internal">
        <lane id=":C_15_0" index="0" speed="10.30" length="4.78" shape="483.40,498.50 488.13,497.82"/>
    </edge>
    <edge id=":C_20" function="internal">
        <lane id=":C_20_0" index="0" speed="12.92" length="16.23" shape="500.96,502.18 505.40,508.52 508.00,516.60"/>
    </edge>
    <edge id=":C_21" function="internal">
        <lane id=":C_21_0" index="0" speed="10.30" length="19.50" shape="488.13,497.82 489.96,497.56 494.65,494.73 497.46,490.01 498.40,483.40"/>
    </edge>
    <edge id=":E_0" function="internal">
        <lane id=":E_0_0" index="0" speed="16.67" length="8.76" width="3.30" shape="619.00,504.80 616.54,505.29 615.00,506.38 613.46,507.46 611.00,507.95"/>
        <lane id=":E_0_1" index="1" speed="16.67" length="8.76" width="3.30" shape="619.00,501.60 616.55,502.08 615.00,503.12 613.45,504.17 611.00,504.65"/>
    </edge>
    <edge id=":E_2" function="internal">
        <lane id=":E_2_0" index="0" speed="3.61" length="4.53" width="3.00" shape="611.00,498.40 612.16,499.17 612.55,499.95 612.16,500.73 611.00,501.50"/>
    </edge>
    <edge id=":N_0" function="internal">
        <lane id=":N_0_0" index="0" speed="16.67" length="8.76" width="3.30" shape="495.20,619.00 494.71,616.54 493.62,615.00 492.54,613.46 492.05,611.00"/>
        <lane id=":N_0_1" index="1" speed="16.67" length="8.76" width="3.30" shape="498.40,619.00 497.92,616.55 496.88,615.00 495.83,613.45 495.35,611.00"/>
    </edge>
    <edge id=":N_2" function="internal">
        <lane id=":N_2_0" index="0" speed="3.61" length="4.53" width="3.00" shape="501.60,611.00 500.83,612.16 500.05,612.55 499.27,612.16 498.50,611.00"/>
    </edge>
    <edge id=":S_0" function="internal">
        <lane id=":S_0_0" index="0" speed="3.61" length="4.53" width="3.00" shape="498.40,389.00 499.17,387.84 499.95,387.45 500.73,387.84 501.50,389.00"/>
    </edge>
    <edge id=":S_1" function="internal">
        <lane id=":S_1_0" index="0" speed="16.67" length="8.76" width="3.30" shape="504.80,381.00 505.29,383.46 506.38,385.00 507.46,386.54 507.95,389.00"/>
        <lane id=":S_1_1" index="1" speed="16.67" length="8.76" width="3.30" shape="501.60,381.00 502.08,383.45 503.12,385.00 504.17,386.55 504.65,389.00"/>
    </edge>
    <edge id=":W_0" function="internal">
        <lane id=":W_0_0" index="0" speed="3.61" length="4.53" width="3.00" shape="389.00,501.60 387.84,500.83 387.45,500.05 387.84,499.27 389.00,498.50"/>
    </edge>
    <edge id=":W_1" function="internal">
        <lane id=":W_1_0" index="0" speed="16.67" length="8.76" width="3.30" shape="381.00,495.20 383.46,494.71 385.00,493.62 386.54,492.54 389.00,492.05"/>
        <lane id=":W_1_1" index="1" speed="16.67" length="8.76" width="3.30" shape="381.00,498.40 383.45,497.92 385.00,496.88 386.55,495.83 389.00,495.35"/>
    </edge>

    <edge id="EB_feed" from="W_feed" to="W" priority="-1">
        <lane id="EB_feed_0" index="0" speed="16.67" length="381.00" shape="0.00,495.20 381.00,495.20"/>
        <lane id="EB_feed_1" index="1" speed="16.67" length="381.00" shape="0.00,498.40 381.00,498.40"/>
    </edge>
    <edge id="EB_in" from="W" to="C" priority="-1">
        <lane id="EB_in_0" index="0" speed="16.67" length="94.40" width="3.00" shape="389.00,488.90 483.40,488.90"/>
        <lane id="EB_in_1" index="1" speed="16.67" length="94.40" width="3.30" shape="389.00,492.05 483.40,492.05"/>
        <lane id="EB_in_2" index="2" speed="16.67" length="94.40" width="3.30" shape="389.00,495.35 483.40,495.35"/>
        <lane id="EB_in_3" index="3" speed="16.67" length="94.40" width="3.00" shape="389.00,498.50 483.40,498.50"/>
    </edge>
    <edge id="EB_out" from="C" to="E" priority="-1">
        <lane id="EB_out_0" index="0" speed="16.67" length="94.40" shape="516.60,492.00 611.00,492.00"/>
        <lane id="EB_out_1" index="1" speed="16.67" length="94.40" shape="516.60,495.20 611.00,495.20"/>
        <lane id="EB_out_2" index="2" speed="16.67" length="94.40" shape="516.60,498.40 611.00,498.40"/>
    </edge>
    <edge id="NB_feed" from="S_feed" to="S" priority="-1">
        <lane id="NB_feed_0" index="0" speed="16.67" length="381.00" shape="504.80,0.00 504.80,381.00"/>
        <lane id="NB_feed_1" index="1" speed="16.67" length="381.00" shape="501.60,0.00 501.60,381.00"/>
    </edge>
    <edge id="NB_in" from="S" to="C" priority="-1">
        <lane id="NB_in_0" index="0" speed="16.67" length="94.40" width="3.00" shape="511.10,389.00 511.10,483.40"/>
        <lane id="NB_in_1" index="1" speed="16.67" length="94.40" width="3.30" shape="507.95,389.00 507.95,483.40"/>
        <lane id="NB_in_2" index="2" speed="16.67" length="94.40" width="3.30" shape="504.65,389.00 504.65,483.40"/>
        <lane id="NB_in_3" index="3" speed="16.67" length="94.40" width="3.00" shape="501.50,389.00 501.50,483.40"/>
    </edge>
    <edge id="NB_out" from="C" to="N" priority="-1">
        <lane id="NB_out_0" index="0" speed="16.67" length="94.40" shape="508.00,516.60 508.00,611.00"/>
        <lane id="NB_out_1" index="1" speed="16.67" length="94.40" shape="504.80,516.60 504.80,611.00"/>
        <lane id="NB_out_2" index="2" speed="16.67" length="94.40" shape="501.60,516.60 501.60,611.00"/>
    </edge>
    <edge id="SB_feed" from="N_feed" to="N" priority="-1">
        <lane id="SB_feed_0" index="0" speed="16.67" length="381.00" shape="495.20,1000.00 495.20,619.00"/>
        <lane id="SB_feed_1" index="1" speed="16.67" length="381.00" shape="498.40,1000.00 498.40,619.00"/>
    </edge>
    <edge id="SB_in" from="N" to="C" priority="-1">
        <lane id="SB_in_0" index="0" speed="16.67" length="94.40" width="3.00" shape="488.90,611.00 488.90,516.60"/>
        <lane id="SB_in_1" index="1" speed="16.67" length="94.40" width="3.30" shape="492.05,611.00 492.05,516.60"/>
        <lane id="SB_in_2" index="2" speed="16.67" length="94.40" width="3.30" shape="495.35,611.00 495.35,516.60"/>
        <lane id="SB_in_3" index="3" speed="16.67" length="94.40" width="3.00" shape="498.50,611.00 498.50,516.60"/>
    </edge>
    <edge id="SB_out" from="C" to="S" priority="-1">
        <lane id="SB_out_0" index="0" speed="16.67" length="94.40" shape="492.00,483.40 492.00,389.00"/>
        <lane id="SB_out_1" index="1" speed="16.67" length="94.40" shape="495.20,483.40 495.20,389.00"/>
        <lane id="SB_out_2" index="2" speed="16.67" length="94.40" shape="498.40,483.40 498.40,389.00"/>
    </edge>
    <edge id="WB_feed" from="E_feed" to="E" priority="-1">
        <lane id="WB_feed_0" index="0" speed="16.67" length="381.00" shape="1000.00,504.80 619.00,504.80"/>
        <lane id="WB_feed_1" index="1" speed="16.67" length="381.00" shape="1000.00,501.60 619.00,501.60"/>
    </edge>
    <edge id="WB_in" from="E" to="C" priority="-1">
        <lane id="WB_in_0" index="0" speed="16.67" length="94.40" width="3.00" shape="611.00,511.10 516.60,511.10"/>
        <lane id="WB_in_1" index="1" speed="16.67" length="94.40" width="3.30" shape="611.00,507.95 516.60,507.95"/>
        <lane id="WB_in_2" index="2" speed="16.67" length="94.40" width="3.30" shape="611.00,504.65 516.60,504.65"/>
        <lane id="WB_in_3" index="3" speed="16.67" length="94.40" width="3.00" shape="611.00,501.50 516.60,501.50"/>
    </edge>
    <edge id="WB_out" from="C" to="W" priority="-1">
        <lane id="WB_out_0" index="0" speed="16.67" length="94.40" shape="483.40,508.00 389.00,508.00"/>
        <lane id="WB_out_1" index="1" speed="16.67" length="94.40" shape="483.40,504.80 389.00,504.80"/>
        <lane id="WB_out_2" index="2" speed="16.67" length="94.40" shape="483.40,501.60 389.00,501.60"/>
    </edge>

    <tlLogic id="C" type="static" programID="0" offset="0">
        <phase duration="36" state="GGGgrrrrGGGgrrrr"/>
        <phase duration="4"  state="yyygrrrryyygrrrr"/>
        <phase duration="6"  state="rrrGrrrrrrrGrrrr"/>
        <phase duration="4"  state="rrryrrrrrrryrrrr"/>
        <phase duration="36" state="rrrrgGGgrrrrgGGg"/>
        <phase duration="4"  state="rrrryyyyrrrryyyy"/>
    </tlLogic>

    <junction id="C" type="traffic_light" x="500.00" y="500.00" incLanes="SB_in_0 SB_in_1 SB_in_2 SB_in_3 WB_in_0 WB_in_1 WB_in_2 WB_in_3 NB_in_0 NB_in_1 NB_in_2 NB_in_3 EB_in_0 EB_in_1 EB_in_2 EB_in_3" intLanes=":C_0_0 :C_1_0 :C_1_1 :C_16_0 :C_17_0 :C_5_0 :C_5_1 :C_18_0 :C_8_0 :C_9_0 :C_9_1 :C_19_0 :C_20_0 :C_13_0 :C_13_1 :C_21_0" shape="487.40,516.60 509.60,516.60 510.38,514.38 511.35,513.60 512.71,513.04 514.46,512.71 516.60,512.60 516.60,490.40 514.38,489.62 513.60,488.65 513.04,487.29 512.71,485.54 512.60,483.40 490.40,483.40 489.62,485.62 488.65,486.40 487.29,486.96 485.54,487.29 483.40,487.40 483.40,509.60 485.62,510.38 486.40,511.35 486.96,512.71 487.29,514.46">
        <request index="0"  response="0000000000000000" foes="0000000001100000" cont="0"/>
        <request index="1"  response="1001000000010000" foes="1111100001110000" cont="0"/>
        <request index="2"  response="1001000000010000" foes="1111100001110000" cont="0"/>
        <request index="3"  response="0001011000010000" foes="0001011001110000" cont="1"/>
        <request index="4"  response="1110111001101110" foes="1111111011101110" cont="1"/>
        <request index="5"  response="0000011000001111" foes="0001011010011111" cont="0"/>
        <request index="6"  response="0000011000001111" foes="0001011010011111" cont="0"/>
        <request index="7"  response="0000011001110000" foes="0001011001110000" cont="1"/>
        <request index="8"  response="0000000000000000" foes="0110000000000000" cont="0"/>
        <request index="9"  response="0001000010010000" foes="0111000011111000" cont="0"/>
        <request index="10" response="0001000010010000" foes="0111000011111000" cont="0"/>
        <request index="11" response="0001000000010110" foes="0111000000010110" cont="1"/>
        <request index="12" response="0110111011111110" foes="1110111011111110" cont="1"/>
        <request index="13" response="0000111100000110" foes="1001111100010110" cont="0"/>
        <request index="14" response="0000111100000110" foes="1001111100010110" cont="0"/>
        <request index="15" response="0111000000000110" foes="0111000000010110" cont="1"/>
    </junction>
    <junction id="E" type="priority" x="615.00" y="500.00" incLanes="WB_feed_0 WB_feed_1 EB_out_0 EB_out_1 EB_out_2" intLanes=":E_0_0 :E_0_1 :E_2_0" shape="619.00,506.40 619.00,500.00 616.67,499.29 615.54,497.51 614.46,492.89 613.33,491.11 611.00,490.40 611.00,512.60 613.00,512.14 614.20,510.99 615.80,508.01 617.00,506.86">
        <request index="0" response="000" foes="000" cont="0"/>
        <request index="1" response="000" foes="000" cont="0"/>
        <request index="2" response="000" foes="000" cont="0"/>
    </junction>
    <junction id="E_feed" type="dead_end" x="1000.00" y="500.00" incLanes="" intLanes="" shape="1000.00,500.00 1000.00,506.40"/>
    <junction id="N" type="priority" x="500.00" y="615.00" incLanes="SB_feed_0 SB_feed_1 NB_out_0 NB_out_1 NB_out_2" intLanes=":N_0_0 :N_0_1 :N_2_0" shape="493.60,619.00 500.00,619.00 500.71,616.67 502.49,615.54 507.11,614.46 508.89,613.33 509.60,611.00 487.40,611.00 487.86,613.00 489.01,614.20 491.99,615.80 493.14,617.00">
        <request index="0" response="000" foes="000" cont="0"/>
        <request index="1" response="000" foes="000" cont="0"/>
        <request index="2" response="000" foes="000" cont="0"/>
    </junction>
    <junction id="N_feed" type="dead_end" x="500.00" y="1000.00" incLanes="" intLanes="" shape="500.00,1000.00 493.60,1000.00"/>
    <junction id="S" type="priority" x="500.00" y="385.00" incLanes="SB_out_0 SB_out_1 SB_out_2 NB_feed_0 NB_feed_1" intLanes=":S_0_0 :S_1_0 :S_1_1" shape="490.40,389.00 512.60,389.00 512.14,387.00 510.99,385.80 508.01,384.20 506.86,383.00 506.40,381.00 500.00,381.00 499.29,383.33 497.51,384.46 492.89,385.54 491.11,386.67">
        <request index="0" response="000" foes="000" cont="0"/>
        <request index="1" response="000" foes="000" cont="0"/>
        <request index="2" response="000" foes="000" cont="0"/>
    </junction>
    <junction id="S_feed" type="dead_end" x="500.00" y="0.00" incLanes="" intLanes="" shape="500.00,0.00 506.40,0.00"/>
    <junction id="W" type="priority" x="385.00" y="500.00" incLanes="WB_out_0 WB_out_1 WB_out_2 EB_feed_0 EB_feed_1" intLanes=":W_0_0 :W_1_0 :W_1_1" shape="389.00,509.60 389.00,487.40 387.00,487.86 385.80,489.01 384.20,491.99 383.00,493.14 381.00,493.60 381.00,500.00 383.33,500.71 384.46,502.49 385.54,507.11 386.67,508.89">
        <request index="0" response="000" foes="000" cont="0"/>
        <request index="1" response="000" foes="000" cont="0"/>
        <request index="2" response="000" foes="000" cont="0"/>
    </junction>
    <junction id="W_feed" type="dead_end" x="0.00" y="500.00" incLanes="" intLanes="" shape="0.00,500.00 0.00,493.60"/>

    <junction id=":C_16_0" type="internal" x="502.19" y="504.35" incLanes=":C_3_0 NB_in_0 NB_in_1 NB_in_2" intLanes=":C_4_0 :C_5_0 :C_5_1 :C_8_0 :C_9_0 :C_9_1 :C_12_0 :C_13_0 :C_13_1"/>
    <junction id=":C_17_0" type="internal" x="499.04" y="497.82" incLanes=":C_4_0 EB_in_1 EB_in_2 EB_in_3" intLanes=":C_1_0 :C_1_1 :C_3_0 :C_5_0 :C_5_1 :C_9_0 :C_9_1 :C_11_0 :C_12_0 :C_13_0 :C_13_1 :C_15_0"/>
    <junction id=":C_18_0" type="internal" x="511.87" y="502.18" incLanes=":C_7_0 WB_in_1 WB_in_2" intLanes=":C_4_0 :C_5_0 :C_5_1 :C_9_0 :C_9_1 :C_12_0"/>
    <junction id=":C_19_0" type="internal" x="497.81" y="495.65" incLanes=":C_11_0 SB_in_0 SB_in_1 SB_in_2" intLanes=":C_0_0 :C_1_0 :C_1_1 :C_4_0 :C_5_0 :C_5_1 :C_12_0 :C_13_0 :C_13_1"/>
    <junction id=":C_20_0" type="internal" x="500.96" y="502.18" incLanes=":C_12_0 WB_in_1 WB_in_2 WB_in_3" intLanes=":C_1_0 :C_1_1 :C_3_0 :C_4_0 :C_5_0 :C_5_1 :C_7_0 :C_9_0 :C_9_1 :C_11_0 :C_13_0 :C_13_1"/>
    <junction id=":C_21_0" type="internal" x="488.13" y="497.82" incLanes=":C_15_0 EB_in_1 EB_in_2" intLanes=":C_1_0 :C_1_1 :C_4_0 :C_12_0 :C_13_0 :C_13_1"/>

    <connection from="EB_feed" to="EB_in" fromLane="0" toLane="1" via=":W_1_0" dir="s" state="M"/>
    <connection from="EB_feed" to="EB_in" fromLane="1" toLane="2" via=":W_1_1" dir="s" state="M"/>
    <connection from="EB_in" to="NB_out" fromLane="0" toLane="0" via=":C_12_0" tl="C" linkIndex="12" dir="l" state="o"/>
    <connection from="EB_in" to="EB_out" fromLane="1" toLane="0" via=":C_13_0" tl="C" linkIndex="13" dir="s" state="o"/>
    <connection from="EB_in" to="EB_out" fromLane="2" toLane="1" via=":C_13_1" tl="C" linkIndex="14" dir="s" state="o"/>
    <connection from="EB_in" to="SB_out" fromLane="3" toLane="2" via=":C_15_0" tl="C" linkIndex="15" dir="r" state="o"/>
    <connection from="EB_out" to="WB_in" fromLane="2" toLane="3" via=":E_2_0" dir="t" state="M"/>
    <connection from="NB_feed" to="NB_in" fromLane="0" toLane="1" via=":S_1_0" dir="s" state="M"/>
    <connection from="NB_feed" to="NB_in" fromLane="1" toLane="2" via=":S_1_1" dir="s" state="M"/>
    <connection from="NB_in" to="EB_out" fromLane="0" toLane="0" via=":C_8_0" tl="C" linkIndex="8" dir="r" state="O"/>
    <connection from="NB_in" to="NB_out" fromLane="1" toLane="0" via=":C_9_0" tl="C" linkIndex="9" dir="s" state="O"/>
    <connection from="NB_in" to="NB_out" fromLane="2" toLane="1" via=":C_9_1" tl="C" linkIndex="10" dir="s" state="O"/>
    <connection from="NB_in" to="WB_out" fromLane="3" toLane="2" via=":C_11_0" tl="C" linkIndex="11" dir="l" state="o"/>
    <connection from="NB_out" to="SB_in" fromLane="2" toLane="3" via=":N_2_0" dir="t" state="M"/>
    <connection from="SB_feed" to="SB_in" fromLane="0" toLane="1" via=":N_0_0" dir="s" state="M"/>
    <connection from="SB_feed" to="SB_in" fromLane="1" toLane="2" via=":N_0_1" dir="s" state="M"/>
    <connection from="SB_in" to="WB_out" fromLane="0" toLane="0" via=":C_0_0" tl="C" linkIndex="0" dir="r" state="O"/>
    <connection from="SB_in" to="SB_out" fromLane="1" toLane="0" via=":C_1_0" tl="C" linkIndex="1" dir="s" state="O"/>
    <connection from="SB_in" to="SB_out" fromLane="2" toLane="1" via=":C_1_1" tl="C" linkIndex="2" dir="s" state="O"/>
    <connection from="SB_in" to="EB_out" fromLane="3" toLane="2" via=":C_3_0" tl="C" linkIndex="3" dir="l" state="o"/>
    <connection from="SB_out" to="NB_in" fromLane="2" toLane="3" via=":S_0_0" dir="t" state="M"/>
    <connection from="WB_feed" to="WB_in" fromLane="0" toLane="1" via=":E_0_0" dir="s" state="M"/>
    <connection from="WB_feed" to="WB_in" fromLane="1" toLane="2" via=":E_0_1" dir="s" state="M"/>
    <connection from="WB_in" to="SB_out" fromLane="0" toLane="0" via=":C_4_0" tl="C" linkIndex="4" dir="l" state="o"/>
    <connection from="WB_in" to="WB_out" fromLane="1" toLane="0" via=":C_5_0" tl="C" linkIndex="5" dir="s" state="o"/>
    <connection from="WB_in" to="WB_out" fromLane="2" toLane="1" via=":C_5_1" tl="C" linkIndex="6" dir="s" state="o"/>
    <connection from="WB_in" to="NB_out" fromLane="3" toLane="2" via=":C_7_0" tl="C" linkIndex="7" dir="r" state="o"/>
    <connection from="WB_out" to="EB_in" fromLane="2" toLane="3" via=":W_0_0" dir="t" state="M"/>

    <connection from=":C_0" to="WB_out" fromLane="0" toLane="0" dir="r" state="M"/>
    <connection from=":C_1" to="SB_out" fromLane="0" toLane="0" dir="s" state="M"/>
    <connection from=":C_1" to="SB_out" fromLane="1" toLane="1" dir="s" state="M"/>
    <connection from=":C_3" to="EB_out" fromLane="0" toLane="2" via=":C_16_0" dir="l" state="m"/>
    <connection from=":C_16" to="EB_out" fromLane="0" toLane="2" dir="l" state="M"/>
    <connection from=":C_4" to="SB_out" fromLane="0" toLane="0" via=":C_17_0" dir="l" state="m"/>
    <connection from=":C_17" to="SB_out" fromLane="0" toLane="0" dir="l" state="M"/>
    <connection from=":C_5" to="WB_out" fromLane="0" toLane="0" dir="s" state="M"/>
    <connection from=":C_5" to="WB_out" fromLane="1" toLane="1" dir="s" state="M"/>
    <connection from=":C_7" to="NB_out" fromLane="0" toLane="2" via=":C_18_0" dir="r" state="m"/>
    <connection from=":C_18" to="NB_out" fromLane="0" toLane="2" dir="r" state="M"/>
    <connection from=":C_8" to="EB_out" fromLane="0" toLane="0" dir="r" state="M"/>
    <connection from=":C_9" to="NB_out" fromLane="0" toLane="0" dir="s" state="M"/>
    <connection from=":C_9" to="NB_out" fromLane="1" toLane="1" dir="s" state="M"/>
    <connection from=":C_11" to="WB_out" fromLane="0" toLane="2" via=":C_19_0" dir="l" state="m"/>
    <connection from=":C_19" to="WB_out" fromLane="0" toLane="2" dir="l" state="M"/>
    <connection from=":C_12" to="NB_out" fromLane="0" toLane="0" via=":C_20_0" dir="l" state="m"/>
    <connection from=":C_20" to="NB_out" fromLane="0" toLane="0" dir="l" state="M"/>
    <connection from=":C_13" to="EB_out" fromLane="0" toLane="0" dir="s" state="M"/>
    <connection from=":C_13" to="EB_out" fromLane="1" toLane="1" dir="s" state="M"/>
    <connection from=":C_15" to="SB_out" fromLane="0" toLane="2" via=":C_21_0" dir="r" state="m"/>
    <connection from=":C_21" to="SB_out" fromLane="0" toLane="2" dir="r" state="M"/>
    <connection from=":E_0" to="WB_in" fromLane="0" toLane="1" dir="s" state="M"/>
    <connection from=":E_0" to="WB_in" fromLane="1" toLane="2" dir="s" state="M"/>
    <connection from=":E_2" to="WB_in" fromLane="0" toLane="3" dir="t" state="M"/>
    <connection from=":N_0" to="SB_in" fromLane="0" toLane="1" dir="s" state="M"/>
    <connection from=":N_0" to="SB_in" fromLane="1" toLane="2" dir="s" state="M"/>
    <connection from=":N_2" to="SB_in" fromLane="0" toLane="3" dir="t" state="M"/>
    <connection from=":S_0" to="NB_in" fromLane="0" toLane="3" dir="t" state="M"/>
    <connection from=":S_1" to="NB_in" fromLane="0" toLane="1" dir="s" state="M"/>
    <connection from=":S_1" to="NB_in" fromLane="1" toLane="2" dir="s" state="M"/>
    <connection from=":W_0" to="EB_in" fromLane="0" toLane="3" dir="t" state="M"/>
    <connection from=":W_1" to="EB_in" fromLane="0" toLane="1" dir="s" state="M"/>
    <connection from=":W_1" to="EB_in" fromLane="1" toLane="2" dir="s" state="M"/>

</net>
